
     RDKit          3D

118120  0  0  0  0  0  0  0  0999 V2000
  -25.0310   17.1350   29.4196 H   0  0  0  0  0  0  0  0  0  0  0  0
  -24.6962   17.1065   29.1159 N   0  0  0  0  0  0  0  0  0  0  0  0
  -24.4938   17.5047   28.7537 C   0  0  0  0  0  0  0  0  0  0  0  0
  -24.6291   17.0679   29.0662 N   0  0  0  0  0  0  0  0  0  0  0  0
  -25.0745   17.6883   28.3766 N   0  0  0  0  0  0  0  0  0  0  0  0
  -25.6317   17.8162   27.9666 C   0  0  0  0  0  0  0  0  0  0  0  0
  -26.0425   17.7275   27.8075 C   0  0  0  0  0  0  0  0  0  0  0  0
  -26.5387   18.0125   27.7366 C   0  0  0  0  0  0  0  0  0  0  0  0
  -26.7545   18.3569   27.2944 C   0  0  1  0  0  0  0  0  0  0  0  0
  -26.8368   18.8256   26.8855 N   0  0  0  0  0  0  0  0  0  0  0  0
  -26.9965   18.7152   26.4935 C   0  0  0  0  0  0  0  0  0  0  0  0
  -27.1978   18.6329   26.4890 O   0  0  0  0  0  0  0  0  0  0  0  0
  -27.1082   18.8122   26.8204 C   0  0  1  0  0  0  0  0  0  0  0  0
  -27.0909   18.8712   27.2178 C   0  0  0  0  0  0  0  0  0  0  0  0
  -27.1900   18.9135   27.4745 C   0  0  0  0  0  0  0  0  0  0  0  0
  -27.8596   19.0318   27.8382 C   0  0  0  0  0  0  0  0  0  0  0  0
  -28.1179   19.2573   28.2248 C   0  0  0  0  0  0  0  0  0  0  0  0
  -29.4033   18.8036   28.8148 N   0  0  0  0  0  0  0  0  0  0  0  0
  -27.3819   19.0173   25.9599 N   0  0  0  0  0  0  0  0  0  0  0  0
  -27.4221   19.0468   25.3438 C   0  0  0  0  0  0  0  0  0  0  0  0
  -27.7898   19.0289   25.3749 O   0  0  0  0  0  0  0  0  0  0  0  0
  -27.2115   19.3713   25.1444 C   0  0  2  0  0  0  0  0  0  0  0  0
  -26.6962   19.4879   25.3904 C   0  0  0  0  0  0  0  0  0  0  0  0
  -26.9546   19.7401   25.2974 C   0  0  0  0  0  0  0  0  0  0  0  0
  -27.0141   19.6018   25.4122 C   0  0  0  0  0  0  0  0  0  0  0  0
  -27.6914   19.9750   24.9585 C   0  0  0  0  0  0  0  0  0  0  0  0
  -27.9946   19.5803   24.6523 N   0  0  0  0  0  0  0  0  0  0  0  0
  -27.2224   20.1874   25.2547 N   0  0  0  0  0  0  0  0  0  0  0  0
  -27.4788   20.4600   24.7150 C   0  0  0  0  0  0  0  0  0  0  0  0
  -27.5368   20.7642   24.8174 C   0  0  0  0  0  0  0  0  0  0  0  0
  -27.5500   20.5872   25.0306 O   0  0  0  0  0  0  0  0  0  0  0  0
  -26.8174   18.2188   26.8818 C   0  0  0  0  0  0  0  0  0  0  0  0
  -27.0964   17.9364   26.9007 O   0  0  0  0  0  0  0  0  0  0  0  0
  -26.3732   18.3583   27.2427 N   0  0  0  0  0  0  0  0  0  0  0  0
  -26.1212   17.9665   27.7821 C   0  0  1  0  0  0  0  0  0  0  0  0
  -25.9245   17.5184   28.3878 C   0  0  0  0  0  0  0  0  0  0  0  0
  -25.9221   17.5518   28.4277 C   0  0  0  0  0  0  0  0  0  0  0  0
  -26.0016   17.5573   28.5628 C   0  0  0  0  0  0  0  0  0  0  0  0
  -26.0260   17.5628   29.0886 C   0  0  0  0  0  0  0  0  0  0  0  0
  -26.0299   17.4223   29.3456 C   0  0  0  0  0  0  0  0  0  0  0  0
  -26.2105   17.3443   29.5905 O   0  0  0  0  0  0  0  0  0  0  0  0
  -26.0308   17.5707   29.0822 C   0  0  0  0  0  0  0  0  0  0  0  0
  -26.0067   17.5639   28.5583 C   0  0  0  0  0  0  0  0  0  0  0  0
  -26.4514   17.7212   27.2821 C   0  0  0  0  0  0  0  0  0  0  0  0
  -26.8890   17.5012   27.1643 O   0  0  0  0  0  0  0  0  0  0  0  0
  -26.3074   17.9743   27.1262 N   0  0  0  0  0  0  0  0  0  0  0  0
  -25.9392   17.6826   27.2311 C   0  0  1  0  0  0  0  0  0  0  0  0
  -25.5879   17.2756   27.4985 C   0  0  0  0  0  0  0  0  0  0  0  0
  -25.6257   17.1032   27.6819 O   0  0  0  0  0  0  0  0  0  0  0  0
  -25.9745   17.1860   27.0314 C   0  0  0  0  0  0  0  0  0  0  0  0
  -26.1322   16.9568   27.1007 O   0  0  0  0  0  0  0  0  0  0  0  0
  -26.0606   17.6291   27.0495 N   0  0  0  0  0  0  0  0  0  0  0  0
  -25.8659   18.0434   26.9616 C   0  0  1  0  0  0  0  0  0  0  0  0
  -25.5748   17.7568   27.5055 C   0  0  0  0  0  0  0  0  0  0  0  0
  -25.2276   17.4150   27.9160 C   0  0  0  0  0  0  0  0  0  0  0  0
  -25.0751   17.3731   28.2000 C   0  0  0  0  0  0  0  0  0  0  0  0
  -24.8487   17.2997   28.7516 N   0  0  0  0  0  0  0  0  0  0  0  0
  -24.3338   17.2104   29.0556 C   0  0  0  0  0  0  0  0  0  0  0  0
  -24.3562   16.7842   29.3991 N   0  0  0  0  0  0  0  0  0  0  0  0
  -24.4324   16.7575   29.4865 N   0  0  0  0  0  0  0  0  0  0  0  0
  -24.8273   16.6821   29.8529 H   0  0  0  0  0  0  0  0  0  0  0  0
  -25.6355   18.0582   26.2793 C   0  0  0  0  0  0  0  0  0  0  0  0
  -25.8676   18.1563   26.3695 O   0  0  0  0  0  0  0  0  0  0  0  0
  -25.6614   18.4336   25.7311 N   0  0  0  0  0  0  0  0  0  0  0  0
  -26.0134   18.8196   25.2918 C   0  0  2  0  0  0  0  0  0  0  0  0
  -25.9918   18.9650   25.3413 C   0  0  0  0  0  0  0  0  0  0  0  0
  -26.4233   19.0617   25.5841 C   0  0  0  0  0  0  0  0  0  0  0  0
  -27.4254   19.2317   26.5771 C   0  0  0  0  0  0  0  0  0  0  0  0
  -28.3208   19.5379   26.9062 C   0  0  0  0  0  0  0  0  0  0  0  0
  -29.5877   19.3217   27.8063 C   0  0  0  0  0  0  0  0  0  0  0  0
  -30.1163   20.3989   27.7324 C   0  0  0  0  0  0  0  0  0  0  0  0
  -29.9413   21.5944   27.8208 C   0  0  0  0  0  0  0  0  0  0  0  0
  -29.7425   22.8483   27.0164 C   0  0  0  0  0  0  0  0  0  0  0  0
  -31.0153   22.4213   25.7978 C   0  0  0  0  0  0  0  0  0  0  0  0
  -31.4578   22.3096   25.0658 C   0  0  1  0  0  0  0  0  0  0  0  0
  -32.3898   21.3329   24.3857 C   0  0  0  0  0  0  0  0  0  0  0  0
  -30.8067   22.7173   25.5605 C   0  0  0  0  0  0  0  0  0  0  0  0
  -29.9035   23.2915   25.9112 O   0  0  0  0  0  0  0  0  0  0  0  0
  -30.1460   22.4027   25.0093 N   0  0  0  0  0  0  0  0  0  0  0  0
  -30.8310   21.6808   24.5451 C   0  0  2  0  0  0  0  0  0  0  0  0
  -29.9291   20.0625   23.5236 C   0  0  0  0  0  0  0  0  0  0  0  0
  -29.6198   19.4449   23.6500 C   0  0  0  0  0  0  0  0  0  0  0  0
  -29.2667   19.0117   23.5250 C   0  0  0  0  0  0  0  0  0  0  0  0
  -28.8767   18.3437   23.5932 C   0  0  0  0  0  0  0  0  0  0  0  0
  -28.5945   17.8577   23.4660 C   0  0  0  0  0  0  0  0  0  0  0  0
  -28.8767   18.3203   23.5824 C   0  0  0  0  0  0  0  0  0  0  0  0
  -29.2667   18.9941   23.5158 C   0  0  0  0  0  0  0  0  0  0  0  0
  -31.7344   21.2207   24.0117 C   0  0  0  0  0  0  0  0  0  0  0  0
  -32.3352   21.4876   24.1434 N   0  0  0  0  0  0  0  0  0  0  0  0
  -32.3721   21.5165   24.1217 O   0  0  0  0  0  0  0  0  0  0  0  0
  -30.9405   22.5217   25.5836 N   0  0  0  0  0  0  0  0  0  0  0  0
  -30.1544   22.3112   25.9144 C   0  0  0  0  0  0  0  0  0  0  0  0
  -29.4005   23.3984   26.7012 O   0  0  0  0  0  0  0  0  0  0  0  0
  -29.6464   21.8594   27.0667 C   0  0  1  0  0  0  0  0  0  0  0  0
  -30.5735   20.4474   27.1574 C   0  0  0  0  0  0  0  0  0  0  0  0
  -31.0469   19.8761   26.8624 C   0  0  1  0  0  0  0  0  0  0  0  0
  -30.9960   19.5262   27.2132 C   0  0  0  0  0  0  0  0  0  0  0  0
  -30.9973   19.5314   27.2198 C   0  0  0  0  0  0  0  0  0  0  0  0
  -29.9830   20.7475   26.0339 N   0  0  0  0  0  0  0  0  0  0  0  0
  -30.0550   19.9910   25.2623 C   0  0  0  0  0  0  0  0  0  0  0  0
  -30.7442   19.6665   24.8935 O   0  0  0  0  0  0  0  0  0  0  0  0
  -28.9092   19.0818   25.5866 C   0  0  2  0  0  0  0  0  0  0  0  0
  -28.1229   18.1613   25.9207 C   0  0  0  0  0  0  0  0  0  0  0  0
  -27.8390   17.6430   25.6516 C   0  0  2  0  0  0  0  0  0  0  0  0
  -27.7099   17.3719   25.7136 C   0  0  0  0  0  0  0  0  0  0  0  0
  -27.7113   17.3754   25.7139 C   0  0  0  0  0  0  0  0  0  0  0  0
  -28.1251   19.8188   25.8787 N   0  0  0  0  0  0  0  0  0  0  0  0
  -27.7900   20.0376   25.4342 C   0  0  0  0  0  0  0  0  0  0  0  0
  -27.9446   20.0517   25.1815 O   0  0  0  0  0  0  0  0  0  0  0  0
  -27.1278   20.0378   25.2021 C   0  0  1  0  0  0  0  0  0  0  0  0
  -27.2248   20.1016   25.3273 C   0  0  0  0  0  0  0  0  0  0  0  0
  -26.9342   21.1052   25.6612 C   0  0  0  0  0  0  0  0  0  0  0  0
  -26.5177   21.8449   26.1213 C   0  0  0  0  0  0  0  0  0  0  0  0
  -26.8071   22.2564   26.1126 N   0  0  0  0  0  0  0  0  0  0  0  0
  -26.8711   22.1742   26.0409 O   0  0  0  0  0  0  0  0  0  0  0  0
  -25.9259   19.6219   25.3956 N   0  0  0  0  0  0  0  0  0  0  0  0
  -25.6981   19.1659   25.3262 C   0  0  0  0  0  0  0  0  0  0  0  0
  -25.6846   19.2073   25.5854 O   0  0  0  0  0  0  0  0  0  0  0  0
 29 31  2  0
 29 30  1  0
 28 29  1  0
 22 28  1  0
 20 22  1  0
 22 23  1  1
 20 21  2  0
 19 20  1  0
 23 24  1  0
 24 25  1  0
 25 26  1  0
 26 27  1  0
 13 19  1  0
 11 13  1  0
 13 14  1  1
 11 12  2  0
 10 11  1  0
 14 15  1  0
 15 16  1  0
 16 17  1  0
 17 18  1  0
  9 10  1  0
 32  9  1  0
  9  8  1  1
 32 33  2  0
 34 32  1  0
  8  7  1  0
  7  6  1  0
  6  5  1  0
  5  3  1  0
  3  4  1  0
  3  2  2  0
 35 34  1  0
 44 35  1  0
 35 36  1  1
 44 45  2  0
 46 44  1  0
 36 37  1  0
 37 38  2  0
 37 43  1  0
 38 39  1  0
 43 42  2  0
 39 40  2  0
 42 40  1  0
 40 41  1  0
 47 46  1  0
 50 47  1  0
 47 48  1  1
 50 51  2  0
 52 50  1  0
 48 49  1  0
 53 52  1  0
 62 53  1  0
 53 54  1  1
 62 63  2  0
 64 62  1  0
 54 55  1  0
 55 56  1  0
 56 57  1  0
 57 58  1  0
 58 60  2  0
 58 59  1  0
117118  2  0
117 65  1  0
116117  1  0
 65 66  1  1
 65 64  1  0
 65 67  1  0
 67 68  1  0
 68 69  1  0
 69 70  1  0
 70 71  2  0
110116  1  0
108110  1  0
110111  1  6
108109  2  0
107108  1  0
111112  1  0
112113  1  0
113115  2  0
113114  1  0
102107  1  0
100102  1  0
102103  1  1
100101  2  0
 99100  1  0
103104  1  0
104105  1  1
104106  1  0
 94 99  1  0
 92 94  1  0
 94 95  1  6
 92 93  2  0
 91 92  1  0
 95 96  1  0
 96 97  1  6
 96 98  1  0
 77 78  2  0
 75 77  1  0
 77 79  1  0
 75 76  1  1
 75 91  1  0
 75 74  1  0
 74 73  1  0
 73 72  1  0
 72 71  1  0
 79 80  1  0
 80 88  1  0
 80 81  1  1
 88 90  2  0
 88 89  1  0
 81 82  1  0
 82 83  2  0
 82 87  1  0
 83 84  1  0
 87 86  2  0
 84 85  2  0
 86 85  1  0
  2  1  1  0
 60 61  1  0
M  CHG  2  18   1  27   1
M  END
$$$$
