
     RDKit          3D

 45 45  0  0  0  0  0  0  0  0999 V2000
  -22.7516  -23.2342    2.8016 H   0  0  0  0  0  0  0  0  0  0  0  0
  -23.3795  -23.3162    2.9249 N   0  0  0  0  0  0  0  0  0  0  0  0
  -24.2292  -23.1011    2.9359 C   0  0  0  0  0  0  0  0  0  0  0  0
  -23.8457  -23.2712    2.9392 N   0  0  0  0  0  0  0  0  0  0  0  0
  -24.7562  -22.8902    2.3705 N   0  0  0  0  0  0  0  0  0  0  0  0
  -25.7556  -22.9762    2.1998 C   0  0  0  0  0  0  0  0  0  0  0  0
  -26.4644  -22.6311    1.9322 C   0  0  0  0  0  0  0  0  0  0  0  0
  -26.8007  -22.3912    1.7173 C   0  0  0  0  0  0  0  0  0  0  0  0
  -26.9453  -21.8738    2.1099 C   0  0  1  0  0  0  0  0  0  0  0  0
  -26.9538  -21.7557    2.2716 C   0  0  0  0  0  0  0  0  0  0  0  0
  -26.9701  -21.5361    2.7414 O   0  0  0  0  0  0  0  0  0  0  0  0
  -26.4574  -21.8476    1.4261 N   0  0  0  0  0  0  0  0  0  0  0  0
  -26.3495  -21.7746    1.2339 C   0  0  0  0  0  0  0  0  0  0  0  0
  -26.0390  -21.7873    0.9297 O   0  0  0  0  0  0  0  0  0  0  0  0
  -26.0069  -21.5561    0.9105 C   0  0  1  0  0  0  0  0  0  0  0  0
  -25.6468  -21.6767    0.5694 C   0  0  0  0  0  0  0  0  0  0  0  0
  -25.3204  -21.5897    0.5310 O   0  0  0  0  0  0  0  0  0  0  0  0
  -26.3921  -21.4840    0.8631 N   0  0  0  0  0  0  0  0  0  0  0  0
  -26.3129  -21.4485    0.8771 C   0  0  0  0  0  0  0  0  0  0  0  0
  -26.2270  -21.5854    0.5731 O   0  0  0  0  0  0  0  0  0  0  0  0
  -26.3417  -21.1230    1.0934 C   0  0  1  0  0  0  0  0  0  0  0  0
  -26.2343  -21.3104    1.1420 C   0  0  0  0  0  0  0  0  0  0  0  0
  -26.1570  -21.1580    1.1489 C   0  0  0  0  0  0  0  0  0  0  0  0
  -26.0845  -20.9109    1.4110 C   0  0  0  0  0  0  0  0  0  0  0  0
  -25.8786  -20.6233    1.4457 C   0  0  0  0  0  0  0  0  0  0  0  0
  -25.8982  -20.3542    1.5955 C   0  0  0  0  0  0  0  0  0  0  0  0
  -25.7311  -20.2851    1.4725 O   0  0  0  0  0  0  0  0  0  0  0  0
  -25.8788  -20.6164    1.4554 C   0  0  0  0  0  0  0  0  0  0  0  0
  -26.0838  -20.9037    1.4215 C   0  0  0  0  0  0  0  0  0  0  0  0
  -26.2727  -20.5538    1.3639 N   0  0  0  0  0  0  0  0  0  0  0  0
  -26.0070  -19.9176    1.3505 C   0  0  0  0  0  0  0  0  0  0  0  0
  -26.0045  -20.1539    1.3192 O   0  0  0  0  0  0  0  0  0  0  0  0
  -25.7678  -18.8802    1.5140 C   0  0  1  0  0  0  0  0  0  0  0  0
  -25.7070  -17.6591    2.0107 C   0  0  0  0  0  0  0  0  0  0  0  0
  -25.6286  -17.2150    2.6358 C   0  0  0  0  0  0  0  0  0  0  0  0
  -25.1505  -16.7880    3.0939 C   0  0  0  0  0  0  0  0  0  0  0  0
  -24.6863  -17.6803    3.4091 N   0  0  0  0  0  0  0  0  0  0  0  0
  -24.1028  -17.9674    3.4841 C   0  0  0  0  0  0  0  0  0  0  0  0
  -24.0595  -18.0251    3.7346 N   0  0  0  0  0  0  0  0  0  0  0  0
  -23.6819  -18.3824    3.6247 N   0  0  0  0  0  0  0  0  0  0  0  0
  -23.1315  -19.1125    3.3071 H   0  0  0  0  0  0  0  0  0  0  0  0
  -25.5140  -18.9823    1.2297 N   0  0  0  0  0  0  0  0  0  0  0  0
  -25.5283  -18.9628    1.0887 C   0  0  0  0  0  0  0  0  0  0  0  0
  -25.4409  -18.8917    1.1633 C   0  0  0  0  0  0  0  0  0  0  0  0
  -25.4758  -19.0330    1.1680 O   0  0  0  0  0  0  0  0  0  0  0  0
 43 45  2  0
 43 44  1  0
 43 42  1  0
 42 33  1  0
 33 31  1  0
 33 34  1  6
 31 32  2  0
 31 30  1  0
 34 35  1  0
 35 36  1  0
 36 37  1  0
 37 38  1  0
 38 39  1  0
 38 40  2  0
 30 21  1  0
 21 19  1  0
 21 22  1  6
 19 20  2  0
 19 18  1  0
 22 23  1  0
 23 24  2  0
 23 29  1  0
 24 25  1  0
 29 28  2  0
 25 26  2  0
 28 26  1  0
 26 27  1  0
 18 15  1  0
 15 13  1  0
 15 16  1  1
 13 14  2  0
 13 12  1  0
 16 17  1  0
 12  9  1  0
  9 10  1  1
  9  8  1  0
 10 11  2  0
  8  7  1  0
  7  6  1  0
  6  5  1  0
  5  3  1  0
  3  4  1  0
  3  2  2  0
 40 41  1  0
  2  1  1  0
M  END
$$$$
