
     RDKit          3D

122123  0  0  0  0  0  0  0  0999 V2000
  -47.3290  -36.2094   71.9693 H   0  0  0  0  0  0  0  0  0  0  0  0
  -47.2277  -36.0675   72.1681 N   0  0  0  0  0  0  0  0  0  0  0  0
  -48.3080  -35.6082   71.7908 C   0  0  0  0  0  0  0  0  0  0  0  0
  -47.0916  -36.0241   72.1972 N   0  0  0  0  0  0  0  0  0  0  0  0
  -48.3147  -35.4896   70.7722 N   0  0  0  0  0  0  0  0  0  0  0  0
  -48.8380  -34.3110   70.3494 C   0  0  0  0  0  0  0  0  0  0  0  0
  -47.6494  -33.2976   71.0368 C   0  0  0  0  0  0  0  0  0  0  0  0
  -47.2600  -31.3484   71.9180 C   0  0  0  0  0  0  0  0  0  0  0  0
  -47.1222  -31.0956   72.2144 C   0  0  2  0  0  0  0  0  0  0  0  0
  -47.2130  -31.5024   71.1642 N   0  0  0  0  0  0  0  0  0  0  0  0
  -47.6635  -32.1403   69.7291 C   0  0  0  0  0  0  0  0  0  0  0  0
  -47.4288  -32.1074   69.7941 C   0  0  0  0  0  0  0  0  0  0  0  0
  -47.4033  -32.1441   69.8169 O   0  0  0  0  0  0  0  0  0  0  0  0
  -46.7698  -31.7319   72.3325 C   0  0  0  0  0  0  0  0  0  0  0  0
  -46.8082  -31.6505   72.5946 O   0  0  0  0  0  0  0  0  0  0  0  0
  -47.2690  -32.6856   72.4579 N   0  0  0  0  0  0  0  0  0  0  0  0
  -47.2631  -34.4049   72.5724 C   0  0  1  0  0  0  0  0  0  0  0  0
  -46.5315  -33.1450   73.4726 C   0  0  0  0  0  0  0  0  0  0  0  0
  -46.1158  -32.8043   73.5324 O   0  0  0  0  0  0  0  0  0  0  0  0
  -46.8302  -33.5401   73.4609 N   0  0  0  0  0  0  0  0  0  0  0  0
  -47.6932  -35.0430   73.0543 C   0  0  2  0  0  0  0  0  0  0  0  0
  -48.0928  -33.9343   72.8557 C   0  0  0  0  0  0  0  0  0  0  0  0
  -48.1927  -34.1979   72.5771 O   0  0  0  0  0  0  0  0  0  0  0  0
  -47.9720  -33.5271   72.7593 N   0  0  0  0  0  0  0  0  0  0  0  0
  -48.0580  -32.9138   72.8757 C   0  0  2  0  0  0  0  0  0  0  0  0
  -48.3674  -32.7625   73.7954 C   0  0  0  0  0  0  0  0  0  0  0  0
  -48.6738  -32.3802   74.2646 C   0  0  0  0  0  0  0  0  0  0  0  0
  -48.7668  -31.9840   74.1752 C   0  0  0  0  0  0  0  0  0  0  0  0
  -48.9825  -31.1763   74.1060 C   0  0  0  0  0  0  0  0  0  0  0  0
  -49.0368  -30.4589   73.8235 C   0  0  0  0  0  0  0  0  0  0  0  0
  -49.1226  -29.8839   73.7425 O   0  0  0  0  0  0  0  0  0  0  0  0
  -48.9787  -31.1604   74.1215 C   0  0  0  0  0  0  0  0  0  0  0  0
  -48.7633  -31.9756   74.1912 C   0  0  0  0  0  0  0  0  0  0  0  0
  -48.1434  -32.9574   71.9319 C   0  0  0  0  0  0  0  0  0  0  0  0
  -48.1594  -32.7384   71.6988 O   0  0  0  0  0  0  0  0  0  0  0  0
  -48.3629  -32.9426   71.4150 N   0  0  0  0  0  0  0  0  0  0  0  0
  -47.5255  -31.7551   71.7528 C   0  0  1  0  0  0  0  0  0  0  0  0
  -48.0119  -32.5865   70.8918 C   0  0  0  0  0  0  0  0  0  0  0  0
  -47.9270  -32.3771   71.0508 O   0  0  0  0  0  0  0  0  0  0  0  0
  -46.7342  -30.1937   72.2593 C   0  0  0  0  0  0  0  0  0  0  0  0
  -46.4047  -29.4556   72.7410 O   0  0  0  0  0  0  0  0  0  0  0  0
  -47.0325  -30.5465   71.8711 N   0  0  0  0  0  0  0  0  0  0  0  0
  -46.9940  -30.7582   71.6352 C   0  0  1  0  0  0  0  0  0  0  0  0
  -47.3836  -31.4231   71.6388 C   0  0  0  0  0  0  0  0  0  0  0  0
  -47.2276  -31.4518   71.7165 C   0  0  0  0  0  0  0  0  0  0  0  0
  -48.1261  -32.3517   71.1476 C   0  0  0  0  0  0  0  0  0  0  0  0
  -48.8704  -33.4487   70.4467 N   0  0  0  0  0  0  0  0  0  0  0  0
  -48.9472  -33.3688   71.2678 C   0  0  0  0  0  0  0  0  0  0  0  0
  -48.0128  -34.2727   71.4693 N   0  0  0  0  0  0  0  0  0  0  0  0
  -47.8253  -34.4665   71.5243 N   0  0  0  0  0  0  0  0  0  0  0  0
  -47.2148  -35.1473   71.4872 H   0  0  0  0  0  0  0  0  0  0  0  0
  -48.1425  -32.2274   69.8550 C   0  0  0  0  0  0  0  0  0  0  0  0
  -47.8708  -31.4650   70.0436 O   0  0  0  0  0  0  0  0  0  0  0  0
  -47.9608  -31.8673   69.6506 N   0  0  0  0  0  0  0  0  0  0  0  0
  -47.5854  -31.9648   69.6053 C   0  0  1  0  0  0  0  0  0  0  0  0
  -48.0804  -31.7427   69.7069 C   0  0  0  0  0  0  0  0  0  0  0  0
  -47.6888  -31.9854   70.9200 C   0  0  0  0  0  0  0  0  0  0  0  0
  -47.8968  -33.1997   72.7114 C   0  0  0  0  0  0  0  0  0  0  0  0
  -48.5475  -34.2743   73.5687 C   0  0  0  0  0  0  0  0  0  0  0  0
  -49.4627  -35.5282   74.1958 C   0  0  0  0  0  0  0  0  0  0  0  0
  -49.7978  -36.3688   74.5126 C   0  0  0  0  0  0  0  0  0  0  0  0
  -49.6388  -37.2799   74.5507 C   0  0  0  0  0  0  0  0  0  0  0  0
  -48.9319  -38.0324   74.0911 C   0  0  0  0  0  0  0  0  0  0  0  0
  -48.1294  -38.8446   73.3685 C   0  0  0  0  0  0  0  0  0  0  0  0
  -47.8562  -39.6132   73.0274 C   0  0  1  0  0  0  0  0  0  0  0  0
  -47.8443  -39.3818   72.8000 C   0  0  0  0  0  0  0  0  0  0  0  0
  -48.0910  -39.4143   73.3741 C   0  0  0  0  0  0  0  0  0  0  0  0
  -48.1274  -38.9416   73.1587 O   0  0  0  0  0  0  0  0  0  0  0  0
  -48.3074  -39.1465   73.6809 N   0  0  0  0  0  0  0  0  0  0  0  0
  -47.4012  -38.7656   74.4619 C   0  0  2  0  0  0  0  0  0  0  0  0
  -47.0222  -38.3916   74.7320 C   0  0  0  0  0  0  0  0  0  0  0  0
  -47.1376  -38.4934   75.1555 C   0  0  2  0  0  0  0  0  0  0  0  0
  -47.3593  -38.7929   75.4404 C   0  0  0  0  0  0  0  0  0  0  0  0
  -47.5922  -38.8514   75.2338 C   0  0  0  0  0  0  0  0  0  0  0  0
  -46.9071  -39.1638   74.3198 C   0  0  0  0  0  0  0  0  0  0  0  0
  -46.8531  -38.9876   74.3711 O   0  0  0  0  0  0  0  0  0  0  0  0
  -47.1759  -38.6801   73.5179 N   0  0  0  0  0  0  0  0  0  0  0  0
  -47.2550  -37.9602   72.1584 C   0  0  1  0  0  0  0  0  0  0  0  0
  -47.5406  -38.0833   72.3096 C   0  0  0  0  0  0  0  0  0  0  0  0
  -46.9441  -38.2670   72.0073 C   0  0  0  0  0  0  0  0  0  0  0  0
  -46.1777  -37.8719   71.3233 C   0  0  0  0  0  0  0  0  0  0  0  0
  -45.1282  -37.5218   69.7058 C   0  0  0  0  0  0  0  0  0  0  0  0
  -44.2677  -37.0792   68.8898 N   0  0  0  0  0  0  0  0  0  0  0  0
  -46.2228  -38.1420   73.3060 C   0  0  0  0  0  0  0  0  0  0  0  0
  -45.9945  -38.4431   73.4007 N   0  0  0  0  0  0  0  0  0  0  0  0
  -46.0098  -38.3739   73.1699 O   0  0  0  0  0  0  0  0  0  0  0  0
  -47.6968  -39.7456   71.7988 N   0  0  0  0  0  0  0  0  0  0  0  0
  -47.5334  -39.6216   70.4628 C   0  0  0  0  0  0  0  0  0  0  0  0
  -47.2521  -39.3483   70.3658 O   0  0  0  0  0  0  0  0  0  0  0  0
  -47.2128  -39.2490   68.7708 C   0  0  2  0  0  0  0  0  0  0  0  0
  -46.1811  -39.4791   67.8746 C   0  0  0  0  0  0  0  0  0  0  0  0
  -45.3466  -39.6815   67.5762 C   0  0  1  0  0  0  0  0  0  0  0  0
  -44.8544  -39.6959   67.1238 C   0  0  0  0  0  0  0  0  0  0  0  0
  -44.8549  -39.6954   67.1244 C   0  0  0  0  0  0  0  0  0  0  0  0
  -46.8171  -38.6505   67.6935 N   0  0  0  0  0  0  0  0  0  0  0  0
  -45.7908  -38.2195   67.2775 C   0  0  0  0  0  0  0  0  0  0  0  0
  -45.5618  -38.2851   67.3057 O   0  0  0  0  0  0  0  0  0  0  0  0
  -45.2418  -37.3670   66.4123 C   0  0  2  0  0  0  0  0  0  0  0  0
  -44.4174  -37.7825   65.6411 C   0  0  0  0  0  0  0  0  0  0  0  0
  -44.0966  -37.7064   65.3007 C   0  0  1  0  0  0  0  0  0  0  0  0
  -43.7430  -38.0568   64.9666 C   0  0  0  0  0  0  0  0  0  0  0  0
  -43.7429  -38.0570   64.9665 C   0  0  0  0  0  0  0  0  0  0  0  0
  -45.5368  -36.1761   66.5223 N   0  0  0  0  0  0  0  0  0  0  0  0
  -45.8983  -34.8861   66.6268 C   0  0  0  0  0  0  0  0  0  0  0  0
  -45.4346  -35.2471   66.7049 O   0  0  0  0  0  0  0  0  0  0  0  0
  -46.6828  -33.6251   67.1516 C   0  0  2  0  0  0  0  0  0  0  0  0
  -46.4192  -32.9791   65.9037 C   0  0  0  0  0  0  0  0  0  0  0  0
  -46.1940  -32.1600   65.3454 C   0  0  0  0  0  0  0  0  0  0  0  0
  -46.2158  -30.3467   64.4678 C   0  0  0  0  0  0  0  0  0  0  0  0
  -46.1034  -29.6892   63.9079 N   0  0  0  0  0  0  0  0  0  0  0  0
  -46.1391  -29.7333   63.9040 O   0  0  0  0  0  0  0  0  0  0  0  0
  -47.3938  -32.4566   68.2823 N   0  0  0  0  0  0  0  0  0  0  0  0
  -47.3413  -32.1061   69.0632 C   0  0  0  0  0  0  0  0  0  0  0  0
  -46.9945  -32.2152   68.8652 O   0  0  0  0  0  0  0  0  0  0  0  0
  -47.7193  -36.5172   73.1332 C   0  0  1  0  0  0  0  0  0  0  0  0
  -47.7950  -36.9057   72.9346 C   0  0  0  0  0  0  0  0  0  0  0  0
  -47.6409  -36.7525   73.1825 C   0  0  0  0  0  0  0  0  0  0  0  0
  -47.7652  -36.8814   73.2265 C   0  0  0  0  0  0  0  0  0  0  0  0
  -47.9075  -35.9911   72.4849 C   0  0  1  0  0  0  0  0  0  0  0  0
  -47.9327  -36.4522   72.2922 C   0  0  0  0  0  0  0  0  0  0  0  0
  -47.8800  -36.2229   72.5606 C   0  0  0  0  0  0  0  0  0  0  0  0
  -48.0124  -36.3015   72.7183 C   0  0  0  0  0  0  0  0  0  0  0  0
 11 13  2  0
 11 12  1  0
 10 11  1  0
  9 10  1  0
 14  9  1  0
  9  8  1  1
 14 15  2  0
 16 14  1  0
  8  7  1  0
  7  6  1  0
  6  5  1  0
  5  3  1  0
  3  2  2  0
  3  4  1  0
 17 16  1  6
 18 17  1  0
 17119  1  0
 18 19  2  0
 20 18  1  0
119121  1  0
119120  1  6
121122  1  0
 21 20  1  1
 22 21  1  0
 21115  1  0
 22 23  2  0
 24 22  1  0
115117  1  0
115116  1  6
117118  1  0
 25 24  1  0
 34 25  1  0
 25 26  1  6
 34 35  2  0
 36 34  1  0
 26 27  1  0
 27 28  2  0
 27 33  1  0
 28 29  1  0
 33 32  2  0
 29 30  2  0
 32 30  1  0
 30 31  1  0
 37 36  1  0
 40 37  1  0
 37 38  1  6
 40 41  2  0
 42 40  1  0
 38 39  1  0
 43 42  1  0
 52 43  1  0
 43 44  1  1
 52 53  2  0
 54 52  1  0
 44 45  1  0
 45 46  1  0
 46 47  1  0
 47 48  1  0
 48 50  2  0
 48 49  1  0
113114  2  0
113 55  1  0
112113  1  0
 55 54  1  0
 55 57  1  0
 55 56  1  1
 57 58  1  0
 59 60  1  0
 58 59  1  0
 60 61  2  0
106112  1  0
104106  1  0
106107  1  6
104105  2  0
103104  1  0
107108  1  0
108109  1  0
109111  2  0
109110  1  0
 98103  1  0
 96 98  1  0
 98 99  1  1
 96 97  2  0
 95 96  1  0
 99100  1  0
100101  1  1
100102  1  0
 90 95  1  0
 88 90  1  0
 90 91  1  1
 88 89  2  0
 87 88  1  0
 91 92  1  0
 92 93  1  6
 92 94  1  0
 67 68  2  0
 65 67  1  0
 67 69  1  0
 87 65  1  0
 65 64  1  0
 65 66  1  1
 64 63  1  0
 61 62  1  0
 62 63  1  0
 69 70  1  0
 70 75  1  0
 70 71  1  1
 75 76  2  0
 75 77  1  0
 71 72  1  0
 72 73  1  1
 72 74  1  0
 77 78  1  0
 78 84  1  0
 78 79  1  1
 84 86  2  0
 84 85  1  0
 79 80  1  0
 80 81  1  0
 81 82  1  0
 82 83  1  0
  2  1  1  0
 50 51  1  0
M  CHG  1  83   1
M  END
$$$$
