
     RDKit          3D

 40 42  0  0  0  0  0  0  0  0999 V2000
  -19.3289   28.4715    0.6312 C   0  0  0  0  0  0  0  0  0  0  0  0
  -18.2416   28.9959    1.0086 C   0  0  0  0  0  0  0  0  0  0  0  0
  -17.9486   29.1000    1.0783 O   0  0  0  0  0  0  0  0  0  0  0  0
  -17.4937   29.4137    1.1121 N   0  0  0  0  0  0  0  0  0  0  0  0
  -16.8036   29.8763    1.3347 C   0  0  2  0  0  0  0  0  0  0  0  0
  -16.4524   29.8992    1.3296 C   0  0  1  0  0  0  0  0  0  0  0  0
  -16.3019   30.0874    1.3943 O   0  0  0  0  0  0  0  0  0  0  0  0
  -16.3639   29.8369    1.5510 O   0  0  0  0  0  0  0  0  0  0  0  0
  -16.3937   29.7917    1.4978 C   0  0  1  0  0  0  0  0  0  0  0  0
  -16.4423   29.1877    1.5723 C   0  0  0  0  0  0  0  0  0  0  0  0
  -15.9185   28.4822    1.5434 O   0  0  0  0  0  0  0  0  0  0  0  0
  -15.9710   27.9935    1.4570 C   0  0  2  0  0  0  0  0  0  0  0  0
  -15.1746   27.9185    1.5940 O   0  0  0  0  0  0  0  0  0  0  0  0
  -15.2707   27.9380    1.6541 C   0  0  1  0  0  0  0  0  0  0  0  0
  -14.5369   27.7315    1.6117 C   0  0  0  0  0  0  0  0  0  0  0  0
  -14.4033   27.5164    1.6438 O   0  0  0  0  0  0  0  0  0  0  0  0
  -15.6419   28.1531    1.5441 C   0  0  2  0  0  0  0  0  0  0  0  0
  -16.3089   28.4338    1.5609 O   0  0  0  0  0  0  0  0  0  0  0  0
  -16.2010   28.1586    1.3331 C   0  0  1  0  0  0  0  0  0  0  0  0
  -15.8622   28.2784    1.2824 O   0  0  0  0  0  0  0  0  0  0  0  0
  -16.2816   27.9208    1.3212 C   0  0  2  0  0  0  0  0  0  0  0  0
  -17.2673   27.6635    1.0402 N   0  0  0  0  0  0  0  0  0  0  0  0
  -17.9665   27.3252    0.9155 C   0  0  0  0  0  0  0  0  0  0  0  0
  -18.8122   26.6834    0.5316 C   0  0  0  0  0  0  0  0  0  0  0  0
  -17.9654   27.4897    0.8945 O   0  0  0  0  0  0  0  0  0  0  0  0
  -16.5096   29.9801    1.5545 C   0  0  1  0  0  0  0  0  0  0  0  0
  -16.6435   30.3989    1.3550 O   0  0  0  0  0  0  0  0  0  0  0  0
  -16.4899   29.9994    1.3987 C   0  0  1  0  0  0  0  0  0  0  0  0
  -15.5352   30.0662    1.6695 O   0  0  0  0  0  0  0  0  0  0  0  0
  -15.4955   29.8197    1.8144 C   0  0  1  0  0  0  0  0  0  0  0  0
  -14.7354   29.2399    1.8864 O   0  0  0  0  0  0  0  0  0  0  0  0
  -14.7837   28.5054    1.9990 C   0  0  1  0  0  0  0  0  0  0  0  0
  -14.4225   28.2662    2.1015 C   0  0  0  0  0  0  0  0  0  0  0  0
  -14.3456   28.0950    2.1480 O   0  0  0  0  0  0  0  0  0  0  0  0
  -14.6053   28.9331    2.1555 C   0  0  2  0  0  0  0  0  0  0  0  0
  -14.6172   28.4547    2.1260 O   0  0  0  0  0  0  0  0  0  0  0  0
  -15.1782   29.8448    2.1077 C   0  0  2  0  0  0  0  0  0  0  0  0
  -15.0499   30.7688    1.8943 O   0  0  0  0  0  0  0  0  0  0  0  0
  -15.2309   30.5887    2.0552 C   0  0  2  0  0  0  0  0  0  0  0  0
  -15.5736   30.8846    1.8656 O   0  0  0  0  0  0  0  0  0  0  0  0
 12 21  1  0
 12 13  1  0
 12 11  1  6
 21 19  1  0
 21 22  1  6
 19 17  1  0
 19 20  1  1
 14 17  1  0
 17 18  1  6
 14 15  1  6
 13 14  1  0
 15 16  1  0
 23 24  1  0
 22 23  1  0
 23 25  2  0
  8  6  1  0
  9  8  1  0
  6  7  1  1
  6  5  1  0
  5  4  1  6
 28  5  1  0
  4  2  1  0
 28 29  1  1
 26 28  1  0
 30 29  1  1
 26 27  1  6
  9 26  1  0
  9 10  1  6
 10 11  1  0
  2  3  2  0
  2  1  1  0
 30 39  1  0
 30 31  1  0
 39 37  1  0
 39 40  1  6
 37 35  1  0
 37 38  1  6
 35 32  1  0
 35 36  1  1
 32 33  1  1
 32 31  1  0
 33 34  1  0
M  END
$$$$
