
     RDKit          3D

 22 24  0  0  0  0  0  0  0  0999 V2000
   -3.8369  -12.8109  -12.9034 O   0  0  0  0  0  0  0  0  0  0  0  0
   -3.7436  -13.7153  -13.0735 C   0  0  0  0  0  0  0  0  0  0  0  0
   -3.8168  -12.7562  -12.9252 O   0  0  0  0  0  0  0  0  0  0  0  0
   -3.7522  -15.0578  -12.6903 C   0  0  0  0  0  0  0  0  0  0  0  0
   -2.8833  -16.2383  -12.3987 C   0  0  0  0  0  0  0  0  0  0  0  0
   -2.5155  -17.1742  -11.5873 C   0  0  0  0  0  0  0  0  0  0  0  0
   -3.0141  -16.9036  -11.7517 C   0  0  0  0  0  0  0  0  0  0  0  0
   -3.8308  -15.9892  -12.0298 C   0  0  0  0  0  0  0  0  0  0  0  0
   -3.7373  -15.4710  -11.5883 C   0  0  0  0  0  0  0  0  0  0  0  0
   -3.4783  -15.1078  -10.8052 C   0  0  0  0  0  0  0  0  0  0  0  0
   -2.7028  -14.9339   -9.8429 C   0  0  0  0  0  0  0  0  0  0  0  0
   -2.0477  -15.0152   -9.1330 C   0  0  0  0  0  0  0  0  0  0  0  0
   -1.1202  -15.3462   -8.2680 C   0  0  0  0  0  0  0  0  0  0  0  0
   -0.5436  -15.6271   -7.8738 C   0  0  0  0  0  0  0  0  0  0  0  0
   -1.1220  -15.3458   -8.2695 C   0  0  0  0  0  0  0  0  0  0  0  0
   -2.0490  -15.0151   -9.1345 C   0  0  0  0  0  0  0  0  0  0  0  0
   -4.2773  -15.4762  -12.8952 C   0  0  0  0  0  0  0  0  0  0  0  0
   -5.9424  -15.0886  -14.5418 N   0  0  0  0  0  0  0  0  0  0  0  0
   -6.6914  -14.9144  -15.4416 C   0  0  0  0  0  0  0  0  0  0  0  0
   -7.9874  -14.5874  -16.7488 C   0  0  0  0  0  0  0  0  0  0  0  0
   -7.9884  -14.5885  -16.7483 C   0  0  0  0  0  0  0  0  0  0  0  0
   -6.6914  -14.9154  -15.4402 C   0  0  0  0  0  0  0  0  0  0  0  0
 11 16  1  0
 16 15  2  0
 14 13  2  0
 15 14  1  0
 19 20  2  0
 18 19  1  0
 21 20  1  0
 22 21  2  0
 10 11  1  0
 11 12  2  0
  4  2  1  0
  2  1  2  0
  2  3  1  0
  4  5  2  0
 17  4  1  0
  6  5  1  0
  7  6  2  0
  8  7  1  0
  8 17  2  0
  9  8  1  0
 17 18  1  0
 18 22  1  0
  9 10  3  0
 12 13  1  0
M  END
$$$$
