
     RDKit          3D

 35 37  0  0  0  0  0  0  0  0999 V2000
   48.3160   17.6819  -10.0650 N   0  0  0  0  0  0  0  0  0  0  0  0
   48.4221   17.6868  -10.0174 C   0  0  0  0  0  0  0  0  0  0  0  0
   49.1471   17.9703  -10.2589 N   0  0  0  0  0  0  0  0  0  0  0  0
   49.4575   17.8429  -10.2502 C   0  0  0  0  0  0  0  0  0  0  0  0
   49.7904   17.8568  -10.2490 N   0  0  0  0  0  0  0  0  0  0  0  0
   49.4928   17.4899  -10.1759 C   0  0  0  0  0  0  0  0  0  0  0  0
   48.9626   17.5321   -9.9673 C   0  0  0  0  0  0  0  0  0  0  0  0
   48.8593   17.0698  -10.0580 N   0  0  0  0  0  0  0  0  0  0  0  0
   49.6954   16.8476  -10.1692 C   0  0  0  0  0  0  0  0  0  0  0  0
   49.9325   17.2333  -10.3545 N   0  0  0  0  0  0  0  0  0  0  0  0
   50.8436   17.0953   -9.7402 C   0  0  2  0  0  0  0  0  0  0  0  0
   50.5389   16.7839   -9.7436 O   0  0  0  0  0  0  0  0  0  0  0  0
   51.1791   16.7141   -9.5493 C   0  0  1  0  0  0  0  0  0  0  0  0
   50.3889   16.4492  -10.2927 C   0  0  0  0  0  0  0  0  0  0  0  0
   50.7575   16.0729   -9.7750 O   0  0  0  0  0  0  0  0  0  0  0  0
   51.4534   16.0951   -9.3847 P   0  0  2  0  0  0  0  0  0  0  0  0
   51.5873   15.8198   -9.1647 O   0  0  0  0  0  0  0  0  0  0  0  0
   51.5941   15.9231   -8.9560 O   0  0  0  0  0  0  0  0  0  0  0  0
   52.9704   14.7787   -8.0036 O   0  0  0  0  0  0  0  0  0  0  0  0
   54.7992   13.5483   -7.1447 P   0  0  1  0  0  0  0  0  0  0  0  0
   55.1979   12.7863   -6.6665 O   0  0  0  0  0  0  0  0  0  0  0  0
   55.1087   12.7264   -6.5501 O   0  0  0  0  0  0  0  0  0  0  0  0
   55.1130   12.7275   -6.5426 O   0  0  0  0  0  0  0  0  0  0  0  0
   51.3120   17.2285   -9.5549 C   0  0  2  0  0  0  0  0  0  0  0  0
   51.9317   16.7154   -9.3566 O   0  0  0  0  0  0  0  0  0  0  0  0
   52.2908   16.0447   -9.8172 P   0  0  1  0  0  0  0  0  0  0  0  0
   52.3395   15.6573   -9.9054 O   0  0  0  0  0  0  0  0  0  0  0  0
   52.3878   15.8122   -9.6881 O   0  0  0  0  0  0  0  0  0  0  0  0
   53.4602   14.8164   -8.4560 O   0  0  0  0  0  0  0  0  0  0  0  0
   55.2988   13.4146   -7.2958 P   0  0  1  0  0  0  0  0  0  0  0  0
   55.5312   12.6653   -6.7973 O   0  0  0  0  0  0  0  0  0  0  0  0
   55.4418   12.6081   -6.6865 O   0  0  0  0  0  0  0  0  0  0  0  0
   55.4420   12.6082   -6.6860 O   0  0  0  0  0  0  0  0  0  0  0  0
   51.4230   17.6460   -9.3387 C   0  0  1  0  0  0  0  0  0  0  0  0
   51.8447   18.1260   -9.4095 O   0  0  0  0  0  0  0  0  0  0  0  0
 26 29  1  0
 29 30  1  0
  9  8  2  0
 10  9  1  0
 11 34  1  0
 11 10  1  1
 12 11  1  0
 30 32  1  6
 24 34  1  0
 34 35  1  6
  2  3  2  0
  4  3  1  0
 13 24  1  0
 24 25  1  1
 13 14  1  1
 13 12  1  0
  5  4  2  0
  6  5  1  0
 15 14  1  0
 30 33  1  0
 30 31  2  0
  7  8  1  0
 26 27  2  0
 16 15  1  0
 10  6  1  0
  2  1  1  0
  7  2  1  0
  6  7  2  0
 25 26  1  0
 20 22  1  6
 20 23  1  0
 20 21  2  0
 16 17  2  0
 16 18  1  6
 26 28  1  6
 19 16  1  0
 19 20  1  0
M  END
$$$$
