
     RDKit          3D

147155  0  0  0  0  0  0  0  0999 V2000
  188.7104  -20.2221   42.5170 C   0  0  0  0  0  0  0  0  0  0  0  0
  189.0100  -20.4011   42.1770 C   0  0  0  0  0  0  0  0  0  0  0  0
  188.5533  -19.9561   42.5595 O   0  0  0  0  0  0  0  0  0  0  0  0
  188.9945  -20.5549   42.2128 N   0  0  0  0  0  0  0  0  0  0  0  0
  188.5518  -20.6463   42.5217 C   0  0  0  0  0  0  0  0  0  0  0  0
  188.1434  -20.7749   42.7981 C   0  0  0  0  0  0  0  0  0  0  0  0
  188.4250  -20.7281   42.5913 C   0  0  0  0  0  0  0  0  0  0  0  0
  188.9701  -20.7348   42.1891 C   0  0  1  0  0  0  0  0  0  0  0  0
  188.8316  -20.6142   42.3172 C   0  0  0  0  0  0  0  0  0  0  0  0
  188.8587  -20.6567   42.2418 O   0  0  0  0  0  0  0  0  0  0  0  0
  188.5823  -20.5620   42.5701 N   0  0  0  0  0  0  0  0  0  0  0  0
  188.1190  -19.8781   43.1058 C   0  0  2  0  0  0  0  0  0  0  0  0
  188.0528  -19.7261   43.1737 C   0  0  0  0  0  0  0  0  0  0  0  0
  188.0456  -19.7433   43.0476 C   0  0  0  0  0  0  0  0  0  0  0  0
  188.0081  -19.7042   43.0288 C   0  0  0  0  0  0  0  0  0  0  0  0
  188.4255  -20.0082   42.7712 N   0  0  0  0  0  0  0  0  0  0  0  0
  188.7496  -20.4566   42.5117 C   0  0  0  0  0  0  0  0  0  0  0  0
  189.5130  -20.6717   42.2451 C   0  0  0  0  0  0  0  0  0  0  0  0
  189.7904  -20.6501   42.1801 C   0  0  0  0  0  0  0  0  0  0  0  0
  190.2020  -20.5479   42.1065 Cl  0  0  0  0  0  0  0  0  0  0  0  0
  189.3045  -20.5956   42.3435 C   0  0  0  0  0  0  0  0  0  0  0  0
  188.5450  -20.4688   42.5525 C   0  0  0  0  0  0  0  0  0  0  0  0
  188.4953  -20.3808   42.6481 C   0  0  0  0  0  0  0  0  0  0  0  0
  188.2399  -19.8278   43.1542 C   0  0  0  0  0  0  0  0  0  0  0  0
  188.3831  -19.8497   42.8888 O   0  0  0  0  0  0  0  0  0  0  0  0
  188.4240  -20.0732   42.9601 N   0  0  0  0  0  0  0  0  0  0  0  0
  188.4223  -20.4880   42.7977 C   0  0  1  0  0  0  0  0  0  0  0  0
  188.2941  -20.5343   42.8839 C   0  0  0  0  0  0  0  0  0  0  0  0
  188.2360  -19.8926   43.1021 C   0  0  0  0  0  0  0  0  0  0  0  0
  188.6298  -19.5746   43.1555 C   0  0  0  0  0  0  0  0  0  0  0  0
  189.0264  -19.6688   43.1789 N   0  0  0  0  0  0  0  0  0  0  0  0
  188.9229  -19.3079   43.2842 C   0  0  0  0  0  0  0  0  0  0  0  0
  189.0177  -19.7527   43.1506 N   0  0  0  0  0  0  0  0  0  0  0  0
  188.6181  -19.0674   43.1473 N   0  0  0  0  0  4  0  0  0  0  0  0
  188.4633  -20.6411   42.6413 C   0  0  0  0  0  0  0  0  0  0  0  0
  188.4383  -20.3487   42.5776 O   0  0  0  0  0  0  0  0  0  0  0  0
  188.8192  -20.7231   42.4456 N   0  0  0  0  0  0  0  0  0  0  0  0
  188.8752  -20.9397   42.3672 C   0  0  1  0  0  0  0  0  0  0  0  0
  189.2489  -21.0719   42.0925 C   0  0  0  0  0  0  0  0  0  0  0  0
  189.1399  -21.0593   42.0892 C   0  0  2  0  0  0  0  0  0  0  0  0
  189.1489  -20.8648   42.1099 C   0  0  0  0  0  0  0  0  0  0  0  0
  189.1513  -20.8633   42.1102 C   0  0  0  0  0  0  0  0  0  0  0  0
  188.8090  -20.7365   42.4894 C   0  0  0  0  0  0  0  0  0  0  0  0
  188.5862  -20.6128   42.4828 O   0  0  0  0  0  0  0  0  0  0  0  0
  188.6534  -20.7173   42.5667 N   0  0  0  0  0  0  0  0  0  0  0  0
  188.4836  -20.6769   42.6535 C   0  0  1  0  0  0  0  0  0  0  0  0
  188.3560  -20.6266   42.7590 C   0  0  0  0  0  0  0  0  0  0  0  0
  188.2070  -20.0210   43.0382 C   0  0  0  0  0  0  0  0  0  0  0  0
  188.6058  -19.6998   43.1058 C   0  0  0  0  0  0  0  0  0  0  0  0
  189.0898  -19.9129   43.0826 N   0  0  0  0  0  0  0  0  0  0  0  0
  189.0740  -19.6776   43.1870 C   0  0  0  0  0  0  0  0  0  0  0  0
  189.1623  -20.0644   43.0520 N   0  0  0  0  0  0  0  0  0  0  0  0
  188.7018  -19.3013   43.1012 N   0  0  0  0  0  4  0  0  0  0  0  0
  188.5004  -20.5457   42.6380 C   0  0  0  0  0  0  0  0  0  0  0  0
  188.4233  -20.3470   42.5715 O   0  0  0  0  0  0  0  0  0  0  0  0
  188.5396  -20.5695   42.6418 N   0  0  0  0  0  0  0  0  0  0  0  0
  188.5145  -20.5506   42.6768 C   0  0  1  0  0  0  0  0  0  0  0  0
  188.3102  -19.9752   42.9819 C   0  0  0  0  0  0  0  0  0  0  0  0
  188.2687  -18.8540   43.3177 C   0  0  0  0  0  0  0  0  0  0  0  0
  188.5819  -18.1725   43.3415 C   0  0  0  0  0  0  0  0  0  0  0  0
  188.6378  -18.2554   43.2089 C   0  0  0  0  0  0  0  0  0  0  0  0
  188.5556  -18.4415   43.1217 N   0  0  0  0  0  4  0  0  0  0  0  0
  188.5811  -20.7209   42.4998 C   0  0  0  0  0  0  0  0  0  0  0  0
  188.5715  -20.4937   42.4411 O   0  0  0  0  0  0  0  0  0  0  0  0
  188.8509  -20.7966   42.3608 N   0  0  0  0  0  0  0  0  0  0  0  0
  188.6027  -20.8162   42.4742 C   0  0  1  0  0  0  0  0  0  0  0  0
  188.4659  -20.8957   42.6545 C   0  0  0  0  0  0  0  0  0  0  0  0
  187.9078  -19.9267   43.1669 C   0  0  1  0  0  0  0  0  0  0  0  0
  187.8903  -19.2316   43.3317 C   0  0  0  0  0  0  0  0  0  0  0  0
  187.8583  -18.5484   43.5278 C   0  0  0  0  0  0  0  0  0  0  0  0
  187.8935  -19.2376   43.3277 C   0  0  0  0  0  0  0  0  0  0  0  0
  189.0152  -20.7221   42.2073 C   0  0  0  0  0  0  0  0  0  0  0  0
  188.6529  -20.5824   42.2823 O   0  0  0  0  0  0  0  0  0  0  0  0
  188.8337  -20.8703   42.1617 N   0  0  0  0  0  0  0  0  0  0  0  0
  188.7122  -20.8578   42.4001 C   0  0  0  0  0  0  0  0  0  0  0  0
  188.5361  -20.9660   42.5723 C   0  0  2  0  0  0  0  0  0  0  0  0
  188.7843  -20.8245   42.6747 O   0  0  0  0  0  0  0  0  0  0  0  0
  188.6651  -21.0545   42.3601 C   0  0  0  0  0  0  0  0  0  0  0  0
  188.7727  -20.9194   42.1813 C   0  0  1  0  0  0  0  0  0  0  0  0
  188.6862  -20.4578   42.3972 C   0  0  0  0  0  0  0  0  0  0  0  0
  188.6904  -20.7022   42.2411 O   0  0  0  0  0  0  0  0  0  0  0  0
  188.5272  -19.6788   42.7474 N   0  0  0  0  0  0  0  0  0  0  0  0
  188.4839  -18.1521   43.3177 C   0  0  2  0  0  0  0  0  0  0  0  0
  188.4197  -17.0457   43.6875 C   0  0  0  0  0  0  0  0  0  0  0  0
  188.3777  -17.2707   43.6156 C   0  0  0  0  0  0  0  0  0  0  0  0
  188.3444  -17.5289   43.5478 O   0  0  0  0  0  0  0  0  0  0  0  0
  188.3626  -17.6926   43.5078 O   0  0  0  0  0  1  0  0  0  0  0  0
  188.6462  -18.3777   43.1598 C   0  0  0  0  0  0  0  0  0  0  0  0
  188.6456  -19.0996   42.8500 O   0  0  0  0  0  0  0  0  0  0  0  0
  188.5884  -18.5098   43.2068 N   0  0  0  0  0  0  0  0  0  0  0  0
  188.3856  -18.7350   43.2895 C   0  0  2  0  0  0  0  0  0  0  0  0
  188.3575  -19.0677   43.2764 C   0  0  0  0  0  0  0  0  0  0  0  0
  188.4665  -19.0814   43.2294 O   0  0  0  0  0  0  0  0  0  0  0  0
  188.2701  -18.9883   43.2449 C   0  0  0  0  0  0  0  0  0  0  0  0
  188.3596  -19.2089   42.9625 O   0  0  0  0  0  0  0  0  0  0  0  0
  188.4724  -19.7542   42.9780 N   0  0  0  0  0  0  0  0  0  0  0  0
  188.4665  -20.3180   42.8999 C   0  0  2  0  0  0  0  0  0  0  0  0
  189.0485  -20.6959   42.5356 C   0  0  0  0  0  0  0  0  0  0  0  0
  189.3299  -20.6079   42.3808 C   0  0  0  0  0  0  0  0  0  0  0  0
  189.3701  -20.5779   42.3230 C   0  0  0  0  0  0  0  0  0  0  0  0
  188.9322  -20.3959   42.4766 C   0  0  0  0  0  0  0  0  0  0  0  0
  188.8678  -20.4135   42.5241 C   0  0  0  0  0  0  0  0  0  0  0  0
  188.9319  -20.3940   42.4749 C   0  0  0  0  0  0  0  0  0  0  0  0
  189.3711  -20.5770   42.3215 C   0  0  0  0  0  0  0  0  0  0  0  0
  188.4470  -20.5741   42.8012 C   0  0  0  0  0  0  0  0  0  0  0  0
  188.4411  -20.4466   42.7184 O   0  0  0  0  0  0  0  0  0  0  0  0
  188.2661  -20.6916   42.8564 N   0  0  0  0  0  0  0  0  0  0  0  0
  188.3428  -20.5224   42.8442 C   0  0  2  0  0  0  0  0  0  0  0  0
  189.5785  -20.7629   42.4156 C   0  0  0  0  0  0  0  0  0  0  0  0
  190.4261  -20.6687   42.1556 C   0  0  0  0  0  0  0  0  0  0  0  0
  189.8045  -20.5304   42.3357 C   0  0  0  0  0  0  0  0  0  0  0  0
  188.7352  -20.2929   42.6995 C   0  0  0  0  0  0  0  0  0  0  0  0
  189.5393  -20.4857   42.4961 C   0  0  0  0  0  0  0  0  0  0  0  0
  190.3233  -20.6691   42.2748 C   0  0  0  0  0  0  0  0  0  0  0  0
  189.7127  -20.5898   42.4540 C   0  0  0  0  0  0  0  0  0  0  0  0
  188.9489  -20.4380   42.6578 C   0  0  0  0  0  0  0  0  0  0  0  0
  188.8626  -20.3561   42.6314 C   0  0  0  0  0  0  0  0  0  0  0  0
  189.9302  -20.5440   42.3216 C   0  0  0  0  0  0  0  0  0  0  0  0
  190.7980  -20.7429   42.0601 C   0  0  0  0  0  0  0  0  0  0  0  0
  188.1980  -20.5642   42.9147 C   0  0  0  0  0  0  0  0  0  0  0  0
  188.3729  -20.3738   42.7440 O   0  0  0  0  0  0  0  0  0  0  0  0
  188.4495  -20.5841   42.7262 N   0  0  0  0  0  0  0  0  0  0  0  0
  188.4083  -20.5442   42.7259 C   0  0  1  0  0  0  0  0  0  0  0  0
  188.2691  -20.0147   43.0039 C   0  0  0  0  0  0  0  0  0  0  0  0
  188.2592  -18.8556   43.3373 C   0  0  0  0  0  0  0  0  0  0  0  0
  188.5847  -18.0960   43.3763 C   0  0  0  0  0  0  0  0  0  0  0  0
  188.6505  -18.1676   43.2387 C   0  0  0  0  0  0  0  0  0  0  0  0
  188.5724  -18.4048   43.1272 N   0  0  0  0  0  4  0  0  0  0  0  0
  188.4607  -20.6057   42.6132 C   0  0  0  0  0  0  0  0  0  0  0  0
  188.4588  -20.4150   42.5434 O   0  0  0  0  0  0  0  0  0  0  0  0
  188.6140  -20.5328   42.5621 N   0  0  0  0  0  0  0  0  0  0  0  0
  188.6275  -20.1603   42.6543 C   0  0  2  0  0  0  0  0  0  0  0  0
  188.6677  -19.3144   43.0081 C   0  0  0  0  0  0  0  0  0  0  0  0
  188.4374  -18.1169   43.3588 C   0  0  0  0  0  0  0  0  0  0  0  0
  188.3512  -18.0458   43.2930 C   0  0  0  0  0  0  0  0  0  0  0  0
  188.2893  -18.1883   43.2406 O   0  0  0  0  0  0  0  0  0  0  0  0
  188.3138  -18.1963   43.2588 O   0  0  0  0  0  1  0  0  0  0  0  0
  188.5939  -20.0396   42.5799 C   0  0  0  0  0  0  0  0  0  0  0  0
  188.4759  -20.0515   42.5037 O   0  0  0  0  0  0  0  0  0  0  0  0
  188.3264  -19.7360   42.7341 N   0  0  0  0  0  0  0  0  0  0  0  0
  188.1180  -19.8061   42.8841 C   0  0  0  0  0  0  0  0  0  0  0  0
  188.0685  -19.9666   42.9231 C   0  0  0  0  0  0  0  0  0  0  0  0
  188.1354  -19.6390   42.9655 C   0  0  0  0  0  0  0  0  0  0  0  0
  188.1978  -19.4468   42.9411 C   0  0  1  0  0  0  0  0  0  0  0  0
  188.2485  -19.4835   42.9119 C   0  0  0  0  0  0  0  0  0  0  0  0
  188.4093  -19.3820   42.9245 N   0  0  0  0  0  0  0  0  0  0  0  0
  188.1364  -19.4327   42.9767 O   0  0  0  0  0  0  0  0  0  0  0  0
  2  3  2  0
  2  1  1  0
  2  4  1  0
  4  8  1  0
  4  5  1  0
  8  9  1  6
  8  7  1  0
  9 10  2  0
  9 11  1  0
  7  6  1  0
  6  5  1  0
 11 12  1  0
 12 13  1  1
 12 24  1  0
 13 14  1  0
 14 23  1  0
 14 15  2  0
 23 22  2  0
 23 17  1  0
 22 21  1  0
 17 16  1  0
 17 18  2  0
 16 15  1  0
 18 19  1  0
 19 20  1  0
 19 21  2  0
 24 25  2  0
 24 26  1  0
 26 27  1  0
 27 35  1  0
 27 28  1  6
 35 36  2  0
 35 37  1  0
 28 29  1  0
 29 30  1  0
 30 31  1  0
 31 32  1  0
 32 34  2  0
 32 33  1  0
 37 38  1  0
 38 43  1  0
 38 39  1  1
 43 44  2  0
 43 45  1  0
 39 40  1  0
 40 41  1  1
 40 42  1  0
 45 46  1  0
 46 54  1  0
 46 47  1  1
 54 55  2  0
 54 56  1  0
 47 48  1  0
 48 49  1  0
 49 50  1  0
 50 51  1  0
 51 53  2  0
 51 52  1  0
 56 57  1  0
 57 63  1  0
 57 58  1  6
 63 64  2  0
 63 65  1  0
 58 59  1  0
 59 60  1  0
 60 61  1  0
 61 62  1  0
 65 66  1  0
 66 67  1  1
 66 72  1  0
 68 67  1  1
 72 73  2  0
 72 74  1  0
 68 69  1  0
 68 71  1  0
 69 70  1  0
 71 70  1  0
 74 79  1  0
 74 75  1  0
 79 80  1  1
 79 78  1  0
 80 81  2  0
 80 82  1  0
 78 76  1  0
 76 75  1  0
 76 77  1  1
 82 83  1  0
 83 88  1  0
 83 84  1  1
 88 89  2  0
 88 90  1  0
 84 85  1  0
 85 87  1  0
 85 86  2  0
 90 91  1  0
 91 94  1  0
 91 92  1  6
 94 95  2  0
 94 96  1  0
 92 93  1  0
 96 97  1  0
 97105  1  0
 97 98  1  1
105106  2  0
105107  1  0
 98 99  1  0
 99100  2  0
 99104  1  0
100101  1  0
104103  2  0
101102  2  0
103102  1  0
107108  1  0
108120  1  0
108109  1  6
120121  2  0
120122  1  0
109110  1  0
110111  2  0
110119  1  0
111112  1  0
112113  2  0
119114  2  0
119118  1  0
114113  1  0
114115  1  0
118117  2  0
117116  1  0
116115  2  0
122123  1  0
123129  1  0
123124  1  6
129130  2  0
129131  1  0
124125  1  0
125126  1  0
126127  1  0
127128  1  0
131132  1  0
132138  1  0
132133  1  6
138139  2  0
138140  1  0
133134  1  0
134135  1  0
135137  1  0
135136  2  0
140144  1  0
140141  1  0
144145  1  1
144143  1  0
145147  2  0
145146  1  0
143142  1  0
142141  1  0
M  CHG  6  34   1  53   1  62   1  87  -1 128   1 137  -1
M  END
$$$$
